L8B
  ModelServer 0.9.9

 30 33  0     1  0  0  0  0  0999 V2000
  -56.7070  -10.9350   -5.1580 C   0  0  0  0  0  0  0  0  0  0  0  0
  -56.0300  -11.9020   -4.2460 C   0  0  0  0  0  0  0  0  0  0  0  0
  -54.7890  -11.8300   -3.8700 C   0  0  0  0  0  0  0  0  0  0  0  0
  -56.6130  -12.9290   -3.7450 N   0  0  0  0  0  0  0  0  0  0  0  0
  -55.7000  -13.5180   -2.9960 O   0  0  0  0  0  0  0  0  0  0  0  0
  -54.5770  -12.8470   -3.0950 C   0  0  0  0  0  0  0  0  0  0  0  0
  -53.3310  -13.2620   -2.3620 C   0  0  0  0  0  0  0  0  0  0  0  0
  -53.5270  -12.8320   -0.9350 C   0  0  0  0  0  0  0  0  0  0  0  0
  -53.3230  -11.6660   -0.6970 O   0  0  0  0  0  0  0  0  0  0  0  0
  -54.0010  -13.6670    0.0010 N   0  0  0  0  0  0  0  0  0  0  0  0
  -54.3240  -15.0460   -0.2130 C   0  0  0  0  0  0  0  0  0  0  0  0
  -55.1030  -15.4130    0.9950 C   0  0  0  0  0  0  0  0  0  0  0  0
  -56.3080  -14.7800    0.9510 O   0  0  0  0  0  0  0  0  0  0  0  0
  -54.3150  -14.7250    2.0030 C   0  0  0  0  0  0  0  0  0  0  0  0
  -54.3040  -13.3800    1.3850 C   0  0  0  0  0  0  0  0  0  0  0  0
  -53.1660  -12.6510    1.9880 C   0  0  0  0  0  0  0  0  0  0  0  0
  -52.0770  -12.6510    1.4540 O   0  0  0  0  0  0  0  0  0  0  0  0
  -53.4500  -12.0180    3.0930 N   0  0  0  0  0  0  0  0  0  0  0  0
  -52.4580  -11.2210    3.7650 C   0  0  0  0  0  0  0  0  0  0  0  0
  -52.1310  -11.9890    4.9620 C   0  0  0  0  0  0  0  0  0  0  0  0
  -53.0710  -12.8010    5.4780 C   0  0  0  0  0  0  0  0  0  0  0  0
  -52.7880  -13.5360    6.5800 C   0  0  0  0  0  0  0  0  0  0  0  0
  -50.9060  -11.9040    5.5270 C   0  0  0  0  0  0  0  0  0  0  0  0
  -50.6160  -12.6450    6.6370 C   0  0  0  0  0  0  0  0  0  0  0  0
  -51.5730  -13.4530    7.1640 C   0  0  0  0  0  0  0  0  0  0  0  0
  -51.3250  -14.2130    8.2740 C   0  0  0  0  0  0  0  0  0  0  0  0
  -50.5320  -13.9990    9.2660 C   0  0  0  0  0  0  0  0  0  0  0  0
  -50.6420  -15.0340   10.0390 N   0  0  0  0  0  0  0  0  0  0  0  0
  -51.4930  -15.8850    9.5560 C   0  0  0  0  0  0  0  0  0  0  0  0
  -51.9140  -15.3670    8.4420 O   0  0  0  0  0  0  0  0  0  0  0  0
  1  2  1  0  0  0  0
  2  3  1  0  0  0  0
  2  4  2  0  0  0  0
  3  6  2  0  0  0  0
  4  5  1  0  0  0  0
  5  6  1  0  0  0  0
  6  7  1  0  0  0  0
  7  8  1  0  0  0  0
  8  9  2  0  0  0  0
  8 10  1  0  0  0  0
 10 11  1  0  0  0  0
 10 15  1  0  0  0  0
 11 12  1  0  0  0  0
 12 13  1  0  0  0  0
 12 14  1  0  0  0  0
 14 15  1  0  0  0  0
 15 16  1  0  0  0  0
 16 17  2  0  0  0  0
 16 18  1  0  0  0  0
 18 19  1  0  0  0  0
 19 20  1  0  0  0  0
 20 21  1  0  0  0  0
 20 23  2  0  0  0  0
 21 22  2  0  0  0  0
 22 25  1  0  0  0  0
 23 24  1  0  0  0  0
 24 25  2  0  0  0  0
 25 26  1  0  0  0  0
 26 27  2  0  0  0  0
 26 30  1  0  0  0  0
 27 28  1  0  0  0  0
 28 29  2  0  0  0  0
 29 30  1  0  0  0  0
M  END
> <model_server_result.job_id>
Q6gWU1fgN2PiYEZ5hEyVuQ

> <model_server_result.datetime_utc>
2023-06-14 13:30:32

> <model_server_result.server_version>
0.9.9

> <model_server_result.query_name>
ligand

> <model_server_result.source_id>
pdb-bcif

> <model_server_result.entry_id>
3zrc

> <model_server_params.name>
atom_site

> <model_server_params.value>
{"label_asym_id":"M","auth_seq_id":1205}

> <model_server_stats.io_time_ms>
23

> <model_server_stats.parse_time_ms>
45

> <model_server_stats.create_model_time_ms>
15

> <model_server_stats.query_time_ms>
243

> <model_server_stats.encode_time_ms>
0

> <model_server_stats.element_count>
30

$$$$
