MOI
  ModelServer 0.9.9

 21 25  0     1  0  0  0  0  0999 V2000
  138.1430  123.0590  135.0800 C   0  0  0  0  0  0  0  0  0  0  0  0
  139.5780  124.0890  133.2110 C   0  0  0  0  0  0  0  0  0  0  0  0
  138.6800  124.1670  134.4200 C   0  0  0  0  0  0  0  0  0  0  0  0
  138.3530  125.4170  134.9160 C   0  0  0  0  0  0  0  0  0  0  0  0
  138.8150  126.7430  134.3880 C   0  0  0  0  0  0  0  0  0  0  0  0
  140.2520  126.5740  133.8730 C   0  0  0  0  0  0  0  0  0  0  0  0
  137.9090  127.2890  133.2550 C   0  0  0  0  0  0  0  0  0  0  0  0
  138.0670  126.5430  131.9130 C   0  0  0  0  0  0  0  0  0  0  0  0
  139.5590  125.4040  130.3590 C   0  0  0  0  0  0  0  0  0  0  0  0
  137.3170  123.2390  136.2100 C   0  0  0  0  0  0  0  0  0  0  0  0
  137.0180  124.5220  136.6930 C   0  0  0  0  0  0  0  0  0  0  0  0
  137.5580  125.5980  136.0220 C   0  0  0  0  0  0  0  0  0  0  0  0
  138.5920  127.5400  135.6890 C   0  0  0  0  0  0  0  0  0  0  0  0
  139.8290  127.6260  136.6290 C   0  0  0  0  0  0  0  0  0  0  0  0
  141.0700  126.8570  136.2290 C   0  0  0  0  0  0  0  0  0  0  0  0
  141.2580  126.3710  134.9850 C   0  0  0  0  0  0  0  0  0  0  0  0
  140.1670  125.4760  132.7530 C   0  0  0  0  0  0  0  0  0  0  0  0
  139.4480  126.1200  131.6250 N   0  0  0  0  0  0  0  0  0  0  0  0
  136.2230  124.6870  137.7790 O   0  0  0  0  0  0  0  0  0  0  0  0
  139.4500  127.2900  137.9630 O   0  0  0  0  0  0  0  0  0  0  0  0
  137.4100  126.9260  136.3220 O   0  0  0  0  0  0  0  0  0  0  0  0
  1  3  1  0  0  0  0
  1 10  2  0  0  0  0
  2  3  1  0  0  0  0
  2 17  1  0  0  0  0
  3  4  2  0  0  0  0
  4  5  1  0  0  0  0
  4 12  1  0  0  0  0
  5  6  1  0  0  0  0
  5  7  1  0  0  0  0
  5 13  1  0  0  0  0
  6 16  1  0  0  0  0
  6 17  1  0  0  0  0
  7  8  1  0  0  0  0
  8 18  1  0  0  0  0
  9 18  1  0  0  0  0
 10 11  1  0  0  0  0
 11 12  2  0  0  0  0
 11 19  1  0  0  0  0
 12 21  1  0  0  0  0
 13 14  1  0  0  0  0
 13 21  1  0  0  0  0
 14 15  1  0  0  0  0
 14 20  1  0  0  0  0
 15 16  2  0  0  0  0
 17 18  1  0  0  0  0
M  END
> <model_server_result.job_id>
kKIk2LPT4dH3s5yRCUA9qg

> <model_server_result.datetime_utc>
2023-06-10 19:47:18

> <model_server_result.server_version>
0.9.9

> <model_server_result.query_name>
ligand

> <model_server_result.source_id>
pdb-bcif

> <model_server_result.entry_id>
8ef6

> <model_server_params.name>
atom_site

> <model_server_params.value>
{"label_asym_id":"H","auth_seq_id":401}

> <model_server_stats.io_time_ms>
42

> <model_server_stats.parse_time_ms>
53

> <model_server_stats.create_model_time_ms>
18

> <model_server_stats.query_time_ms>
255

> <model_server_stats.encode_time_ms>
0

> <model_server_stats.element_count>
21

$$$$
